[General]
network = OpcNetwork
record-eventlog = true
sim-time-limit = 5s